OPT_V10/Two_days_MYC3/powerflow_results_t47.txt
Pandapower Network Debug Info
==================================================

BUS:
       vm_pu  va_degree      p_mw    q_mvar
0   0.993125   0.106377  0.000849  0.000870
1   0.988735   0.164152  0.001225  0.001970
2   0.984550   0.199230  0.002513  0.002618
3   0.989393   0.185483  0.002453  0.003945
4   0.999891   0.001172  0.009063  0.008889
5   0.999878   0.001312  0.010053  0.009540
6   0.999868   0.001462  0.010030  0.013177
7   0.999932   0.000779  0.000000  0.000000
8   0.999932   0.000785  0.000000  0.000000
9   1.000000   0.000000 -0.036326 -0.046102
10  1.000000   0.000006  0.000000  0.000000
--------------------------------------------------

LINE:
   p_from_mw  q_from_mvar   p_to_mw  q_to_mvar         pl_mw       ql_mvar  i_from_ka   i_to_ka      i_ka  vm_from_pu  va_from_degree  vm_to_pu  va_to_degree  loading_percent
0   0.036316     0.042102 -0.036313  -0.042099  3.023805e-06  2.357711e-06   0.002140  0.002140  0.002140    1.000000        0.000006  0.999932      0.000779         0.930461
1   0.029148     0.031607 -0.029146  -0.031606  1.429700e-06  1.114761e-06   0.001655  0.001655  0.001655    0.999932        0.000779  0.999891      0.001172         0.719571
2   0.007155     0.009492 -0.007089  -0.009440  6.609618e-05  5.153628e-05   0.017158  0.017158  0.017158    0.999932        0.000785  0.993125      0.106377         7.460132
3  -0.020083    -0.022717  0.020084   0.022718  3.180330e-07  2.479756e-07   0.001167  0.001167  0.001167    0.999878        0.001312  0.999891      0.001172         0.507493
4  -0.010030    -0.013177  0.010030   0.013177  1.341520e-07  1.046005e-07   0.000637  0.000637  0.000637    0.999868        0.001462  0.999878      0.001312         0.277163
5  -0.003750    -0.004598  0.003772   0.004614  2.130610e-05  1.661272e-05   0.008662  0.008662  0.008662    0.988735        0.164152  0.993125      0.106377         3.766000
6  -0.002453    -0.003945  0.002468   0.003956  1.472002e-05  1.147744e-05   0.006777  0.006777  0.006777    0.989393        0.185483  0.993125      0.106377         2.946592
7  -0.002513    -0.002618  0.002525   0.002628  1.229208e-05  9.584340e-06   0.005321  0.005321  0.005321    0.984550        0.199230  0.988735      0.164152         2.313329
--------------------------------------------------

TRAFO:
    p_hv_mw  q_hv_mvar   p_lv_mw  q_lv_mvar    pl_mw  ql_mvar   i_hv_ka   i_lv_ka  vm_hv_pu  va_hv_degree  vm_lv_pu  va_lv_degree  loading_percent
0  0.007165   0.010492 -0.007155  -0.009492  0.00001    0.001  0.000489  0.017158  0.999932      0.000779  0.999932      0.000785         0.127060
1  0.036326   0.046102 -0.036316  -0.042102  0.00001    0.004  0.000484  0.002140  1.000000      0.000000  1.000000      0.000006         0.146734
--------------------------------------------------
